Version 4.1
SHEET 1 880 680
WIRE 256 -48 256 -96
WIRE 256 64 256 32
WIRE 352 64 256 64
WIRE 256 80 256 64
WIRE 192 128 128 128
WIRE 112 256 64 256
WIRE 64 288 64 256
WIRE 112 304 112 256
WIRE 0 320 0 288
WIRE 256 400 256 176
WIRE 0 448 0 384
WIRE 112 448 112 384
WIRE 112 448 0 448
WIRE 192 448 112 448
WIRE 256 560 256 496
FLAG 256 560 0
FLAG -304 272 0
FLAG -304 112 0
FLAG 64 288 0
FLAG 0 288 Vin
FLAG -304 192 VB1
FLAG 256 -96 Vcc
FLAG -304 32 Vcc
FLAG 352 64 Vout
FLAG -304 448 0
FLAG -304 368 Vin
FLAG 128 128 VB1
SYMBOL npn 192 80 R0
SYMATTR InstName Q1
SYMATTR Value 2N3904
SYMBOL res 240 -64 R0
SYMATTR InstName RC
SYMATTR Value 100k
SYMBOL cap -16 320 R0
SYMATTR InstName C1
SYMATTR Value 10µ
SYMBOL current 112 304 R0
WINDOW 123 0 0 Left 0
WINDOW 39 0 0 Left 0
SYMATTR InstName I1
SYMATTR Value 3.33µ
SYMBOL voltage -304 16 R0
WINDOW 123 0 0 Left 0
WINDOW 39 0 0 Left 0
SYMATTR InstName V1
SYMATTR Value 15
SYMBOL voltage -304 176 R0
WINDOW 123 0 0 Left 0
WINDOW 39 0 0 Left 0
SYMATTR InstName V2
SYMATTR Value 0.7
SYMBOL npn 192 400 R0
SYMATTR InstName Q2
SYMATTR Value 2N3904
SYMBOL voltage -304 352 R0
WINDOW 123 24 124 Left 2
WINDOW 39 0 0 Left 0
SYMATTR InstName V3
SYMATTR Value ""
SYMATTR Value2 AC 1
TEXT -304 536 Left 2 ;.tran 0 10m 0 0.1u
TEXT -304 576 Left 2 !.ac dec 10 1 1G
