Version 4.1
SHEET 1 880 680
WIRE 208 -112 160 -112
WIRE 160 -80 160 -112
WIRE 336 -48 336 -80
WIRE 208 -16 208 -112
WIRE 336 48 336 32
WIRE 416 48 336 48
WIRE 336 80 336 48
WIRE 96 96 96 64
WIRE 208 128 208 64
WIRE 272 128 208 128
WIRE 96 176 96 160
WIRE 208 176 208 128
WIRE 208 176 96 176
WIRE 336 208 336 176
WIRE 336 304 336 288
FLAG -176 224 Vin
FLAG -176 32 Vcc
FLAG -176 304 0
FLAG -176 112 0
FLAG 336 -80 Vcc
FLAG 336 304 0
FLAG 160 -80 0
FLAG 96 64 Vin
FLAG 416 48 Vout
SYMBOL voltage -176 16 R0
WINDOW 123 0 0 Left 0
WINDOW 39 0 0 Left 0
SYMATTR InstName V1
SYMATTR Value 15
SYMBOL voltage -176 208 R0
WINDOW 123 38 117 Left 2
WINDOW 39 0 0 Left 0
WINDOW 3 38 67 Left 2
SYMATTR InstName V2
SYMATTR Value SINE(0 0.5m 1k)
SYMBOL npn 272 80 R0
SYMATTR InstName Q1
SYMATTR Value 2N3904
SYMBOL res 320 -64 R0
SYMATTR InstName RC
SYMATTR Value 10k
SYMBOL current 208 -16 R0
WINDOW 123 0 0 Left 0
WINDOW 39 0 0 Left 0
SYMATTR InstName I1
SYMATTR Value 3.33µ
SYMBOL cap 80 96 R0
SYMATTR InstName C1
SYMATTR Value 10µ
SYMBOL res 320 192 R0
SYMATTR InstName RE
SYMATTR Value 100
TEXT -200 384 Left 2 !.tran 0 10m 0 0.1u
TEXT -200 416 Left 2 ;.ac dec 10 1 1G
